32

C  -3.655704  -0.073700  -0.293774
C  -3.094159  -1.381731  -0.293170
C  -1.742381  -1.580333  -0.230713
C  -0.857499  -0.472013  -0.160784
C  -1.405560   0.836566  -0.159693
C  -2.811116   1.006506  -0.226961
N   0.480286  -0.704623  -0.099633
C   1.297227   0.323206  -0.036357
C   0.846132   1.672003  -0.029942
C  -0.495173   1.920026  -0.091683
C   2.760398   0.029647   0.031401
N   3.583943   1.082013   0.088057
C   4.894264   0.851744   0.149591
C   5.450661  -0.422709   0.158116
C   4.590789  -1.513242   0.098998
C   3.223747  -1.287888   0.034528
C  -5.153942   0.088952  -0.321539
C  -5.782163  -0.231154   1.039302
H  -3.761919  -2.236299  -0.350179
H  -1.313677  -2.576024  -0.236020
H  -3.214057   2.015681  -0.226391
H   1.574275   2.468981   0.023774
H  -0.874617   2.936852  -0.089069
H   5.531241   1.729825   0.194133
H   6.524581  -0.550073   0.209559
H   4.979885  -2.524828   0.103152
H   2.513905  -2.102230  -0.013020
H  -5.405913   1.111295  -0.612624
H  -5.577125  -0.573714  -1.082248
H  -6.867466  -0.120559   1.003833
H  -5.557045  -1.256006   1.343392
H  -5.394809   0.440090   1.808821